data_image0
_cell_length_a       15.395
_cell_length_b       15.3073
_cell_length_c       18.426
_cell_angle_alpha    90
_cell_angle_beta     90
_cell_angle_gamma    90

_symmetry_space_group_name_H-M    "P 1"
_symmetry_int_tables_number       1

loop_
  _symmetry_equiv_pos_as_xyz
  'x, y, z'

loop_
  _atom_site_label
  _atom_site_occupancy
  _atom_site_fract_x
  _atom_site_fract_y
  _atom_site_fract_z
  _atom_site_thermal_displace_type
  _atom_site_B_iso_or_equiv
  _atom_site_type_symbol
  C1       1.0000 0.85769  0.73390  0.86019  Biso   1.000  C
  H1       1.0000 0.82190  0.78010  0.84480  Biso   1.000  H
  C2       1.0000 0.89910  0.61320  0.90571  Biso   1.000  C
  H2       1.0000 0.89930  0.55800  0.92800  Biso   1.000  H
  C3       1.0000 0.97080  0.65820  0.88370  Biso   1.000  C
  H3       1.0000 0.02870  0.63950  0.88810  Biso   1.000  H
  C4       1.0000 0.69110  0.51370  0.78300  Biso   1.000  C
  H4       1.0000 0.73910  0.53740  0.75830  Biso   1.000  H
  C5       1.0000 0.61980  0.82240  0.89068  Biso   1.000  C
  H5       1.0000 0.63720  0.84540  0.93570  Biso   1.000  H
  C6       1.0000 0.59815  0.73721  0.80184  Biso   1.000  C
  H6       1.0000 0.59770  0.68700  0.77240  Biso   1.000  H
  C7       1.0000 0.10590  0.84601  0.95360  Biso   1.000  C
  H7       1.0000 0.06400  0.81080  0.97640  Biso   1.000  H
  C8       1.0000 0.07600  0.86590  0.66094  Biso   1.000  C
  H8       1.0000 0.05780  0.92450  0.65790  Biso   1.000  H
  C9       1.0000 0.72750  0.59510  0.07030  Biso   1.000  C
  H9       1.0000 0.78500  0.57500  0.06610  Biso   1.000  H
  C10      1.0000 0.18300  0.89760  0.86750  Biso   1.000  C
  H10      1.0000 0.20380  0.91060  0.82080  Biso   1.000  H
  N1       1.0000 0.82702  0.66148  0.89010  Biso   1.000  N
  N2       1.0000 0.94376  0.73514  0.85396  Biso   1.000  N
  N3       1.0000 0.67417  0.62256  0.01153  Biso   1.000  N
  N4       1.0000 0.66370  0.53685  0.85008  Biso   1.000  N
  N5       1.0000 0.63490  0.73928  0.86682  Biso   1.000  N
  N6       1.0000 0.10088  0.86758  0.88468  Biso   1.000  N
  N7       1.0000 0.06206  0.81197  0.71808  Biso   1.000  N
  Zn1      1.0000 0.70215  0.63949  0.90830  Biso   1.000  Zn
  Zn2      1.0000 0.00963  0.83602  0.81374  Biso   1.000  Zn
  C11      1.0000 0.64231  0.26610  0.36019  Biso   1.000  C
  H11      1.0000 0.67810  0.21990  0.34480  Biso   1.000  H
  C12      1.0000 0.60090  0.38680  0.40571  Biso   1.000  C
  H12      1.0000 0.60070  0.44200  0.42800  Biso   1.000  H
  C13      1.0000 0.52920  0.34180  0.38370  Biso   1.000  C
  H13      1.0000 0.47130  0.36050  0.38810  Biso   1.000  H
  C14      1.0000 0.80890  0.48630  0.28300  Biso   1.000  C
  H14      1.0000 0.76090  0.46260  0.25830  Biso   1.000  H
  C15      1.0000 0.88020  0.17760  0.39068  Biso   1.000  C
  H15      1.0000 0.86280  0.15460  0.43570  Biso   1.000  H
  C16      1.0000 0.90185  0.26279  0.30184  Biso   1.000  C
  H16      1.0000 0.90230  0.31300  0.27240  Biso   1.000  H
  C17      1.0000 0.39410  0.15399  0.45360  Biso   1.000  C
  H17      1.0000 0.43600  0.18920  0.47640  Biso   1.000  H
  C18      1.0000 0.42400  0.13410  0.16094  Biso   1.000  C
  H18      1.0000 0.44220  0.07550  0.15790  Biso   1.000  H
  C19      1.0000 0.59469  0.01289  0.36161  Biso   1.000  C
  H19      1.0000 0.56190  0.01000  0.40460  Biso   1.000  H
  C20      1.0000 0.63720  0.05010  0.25710  Biso   1.000  C
  H20      1.0000 0.64210  0.07770  0.21170  Biso   1.000  H
  C21      1.0000 0.33490  0.06770  0.37880  Biso   1.000  C
  H21      1.0000 0.32360  0.03380  0.33730  Biso   1.000  H
  C22      1.0000 0.79200  0.43810  0.55700  Biso   1.000  C
  H22      1.0000 0.74680  0.47720  0.54600  Biso   1.000  H
  N8       1.0000 0.67298  0.33852  0.39010  Biso   1.000  N
  N9       1.0000 0.55624  0.26486  0.35396  Biso   1.000  N
  N10      1.0000 0.82583  0.37744  0.51153  Biso   1.000  N
  N11      1.0000 0.83630  0.46315  0.35008  Biso   1.000  N
  N12      1.0000 0.86510  0.26072  0.36682  Biso   1.000  N
  N13      1.0000 0.39912  0.13242  0.38468  Biso   1.000  N
  N14      1.0000 0.43794  0.18803  0.21808  Biso   1.000  N
  N15      1.0000 0.57555  0.06713  0.30772  Biso   1.000  N
  Zn3      1.0000 0.79785  0.36051  0.40830  Biso   1.000  Zn
  Zn4      1.0000 0.49036  0.16398  0.31374  Biso   1.000  Zn
  C23      1.0000 0.35769  0.76610  0.13981  Biso   1.000  C
  H23      1.0000 0.32190  0.71990  0.15520  Biso   1.000  H
  C24      1.0000 0.39910  0.88680  0.09429  Biso   1.000  C
  H24      1.0000 0.39930  0.94200  0.07200  Biso   1.000  H
  C25      1.0000 0.47080  0.84180  0.11630  Biso   1.000  C
  H25      1.0000 0.52870  0.86050  0.11190  Biso   1.000  H
  C26      1.0000 0.11980  0.67760  0.10932  Biso   1.000  C
  H26      1.0000 0.13720  0.65460  0.06430  Biso   1.000  H
  C27      1.0000 0.09815  0.76279  0.19816  Biso   1.000  C
  H27      1.0000 0.09770  0.81300  0.22760  Biso   1.000  H
  C28      1.0000 0.60590  0.65399  0.04640  Biso   1.000  C
  H28      1.0000 0.56400  0.68920  0.02360  Biso   1.000  H
  C29      1.0000 0.57600  0.63410  0.33906  Biso   1.000  C
  H29      1.0000 0.55780  0.57550  0.34210  Biso   1.000  H
  C30      1.0000 0.40531  0.51289  0.13839  Biso   1.000  C
  H30      1.0000 0.43810  0.51000  0.09540  Biso   1.000  H
  C31      1.0000 0.36280  0.55010  0.24290  Biso   1.000  C
  H31      1.0000 0.35790  0.57770  0.28830  Biso   1.000  H
  C32      1.0000 0.22750  0.90490  0.92970  Biso   1.000  C
  H32      1.0000 0.28500  0.92500  0.93390  Biso   1.000  H
  C33      1.0000 0.68300  0.60240  0.13250  Biso   1.000  C
  H33      1.0000 0.70380  0.58940  0.17920  Biso   1.000  H
  N16      1.0000 0.32702  0.83852  0.10990  Biso   1.000  N
  N17      1.0000 0.44376  0.76486  0.14604  Biso   1.000  N
  N18      1.0000 0.17417  0.87744  0.98847  Biso   1.000  N
  N19      1.0000 0.13490  0.76072  0.13318  Biso   1.000  N
  N20      1.0000 0.60088  0.63242  0.11532  Biso   1.000  N
  N21      1.0000 0.56206  0.68803  0.28192  Biso   1.000  N
  N22      1.0000 0.42445  0.56713  0.19228  Biso   1.000  N
  Zn5      1.0000 0.20215  0.86051  0.09170  Biso   1.000  Zn
  Zn6      1.0000 0.50963  0.66398  0.18626  Biso   1.000  Zn
  C34      1.0000 0.14231  0.23390  0.63981  Biso   1.000  C
  H34      1.0000 0.17810  0.28010  0.65520  Biso   1.000  H
  C35      1.0000 0.10090  0.11320  0.59429  Biso   1.000  C
  H35      1.0000 0.10070  0.05800  0.57200  Biso   1.000  H
  C36      1.0000 0.02920  0.15820  0.61630  Biso   1.000  C
  H36      1.0000 0.97130  0.13950  0.61190  Biso   1.000  H
  C37      1.0000 0.30890  0.01370  0.71700  Biso   1.000  C
  H37      1.0000 0.26090  0.03740  0.74170  Biso   1.000  H
  C38      1.0000 0.38020  0.32240  0.60932  Biso   1.000  C
  H38      1.0000 0.36280  0.34540  0.56430  Biso   1.000  H
  C39      1.0000 0.40185  0.23721  0.69816  Biso   1.000  C
  H39      1.0000 0.40230  0.18700  0.72760  Biso   1.000  H
  C40      1.0000 0.89410  0.34601  0.54640  Biso   1.000  C
  H40      1.0000 0.93600  0.31080  0.52360  Biso   1.000  H
  C41      1.0000 0.92400  0.36590  0.83906  Biso   1.000  C
  H41      1.0000 0.94220  0.42450  0.84210  Biso   1.000  H
  C42      1.0000 0.09469  0.48711  0.63839  Biso   1.000  C
  H42      1.0000 0.06190  0.49000  0.59540  Biso   1.000  H
  C43      1.0000 0.13720  0.44990  0.74290  Biso   1.000  C
  H43      1.0000 0.14210  0.42230  0.78830  Biso   1.000  H
  C44      1.0000 0.83490  0.43230  0.62120  Biso   1.000  C
  H44      1.0000 0.82360  0.46620  0.66270  Biso   1.000  H
  C45      1.0000 0.29200  0.06190  0.44300  Biso   1.000  C
  H45      1.0000 0.24680  0.02280  0.45400  Biso   1.000  H
  N23      1.0000 0.17298  0.16148  0.60990  Biso   1.000  N
  N24      1.0000 0.05624  0.23514  0.64604  Biso   1.000  N
  N25      1.0000 0.32583  0.12256  0.48847  Biso   1.000  N
  N26      1.0000 0.33630  0.03685  0.64992  Biso   1.000  N
  N27      1.0000 0.36510  0.23928  0.63318  Biso   1.000  N
  N28      1.0000 0.89912  0.36758  0.61532  Biso   1.000  N
  N29      1.0000 0.93794  0.31197  0.78192  Biso   1.000  N
  N30      1.0000 0.07555  0.43287  0.69228  Biso   1.000  N
  Zn7      1.0000 0.29785  0.13949  0.59170  Biso   1.000  Zn
  Zn8      1.0000 0.99037  0.33602  0.68626  Biso   1.000  Zn
  C46      1.0000 0.14231  0.26610  0.13981  Biso   1.000  C
  H46      1.0000 0.17810  0.21990  0.15520  Biso   1.000  H
  C47      1.0000 0.10090  0.38680  0.09429  Biso   1.000  C
  H47      1.0000 0.10070  0.44200  0.07200  Biso   1.000  H
  C48      1.0000 0.02920  0.34180  0.11630  Biso   1.000  C
  H48      1.0000 0.97130  0.36050  0.11190  Biso   1.000  H
  C49      1.0000 0.30890  0.48630  0.21700  Biso   1.000  C
  H49      1.0000 0.26090  0.46260  0.24170  Biso   1.000  H
  C50      1.0000 0.38020  0.17760  0.10932  Biso   1.000  C
  H50      1.0000 0.36280  0.15460  0.06430  Biso   1.000  H
  C51      1.0000 0.40185  0.26279  0.19816  Biso   1.000  C
  H51      1.0000 0.40230  0.31300  0.22760  Biso   1.000  H
  C52      1.0000 0.89410  0.15399  0.04640  Biso   1.000  C
  H52      1.0000 0.93600  0.18920  0.02360  Biso   1.000  H
  C53      1.0000 0.92400  0.13410  0.33906  Biso   1.000  C
  H53      1.0000 0.94220  0.07550  0.34210  Biso   1.000  H
  C54      1.0000 0.27250  0.40490  0.92970  Biso   1.000  C
  H54      1.0000 0.21500  0.42500  0.93390  Biso   1.000  H
  C55      1.0000 0.81700  0.10240  0.13250  Biso   1.000  C
  H55      1.0000 0.79620  0.08940  0.17920  Biso   1.000  H
  N31      1.0000 0.17298  0.33852  0.10990  Biso   1.000  N
  N32      1.0000 0.05624  0.26486  0.14604  Biso   1.000  N
  N33      1.0000 0.32583  0.37744  0.98847  Biso   1.000  N
  N34      1.0000 0.33630  0.46315  0.14992  Biso   1.000  N
  N35      1.0000 0.36510  0.26072  0.13318  Biso   1.000  N
  N36      1.0000 0.89912  0.13242  0.11532  Biso   1.000  N
  N37      1.0000 0.93794  0.18803  0.28192  Biso   1.000  N
  Zn9      1.0000 0.29785  0.36051  0.09170  Biso   1.000  Zn
  Zn10     1.0000 0.99037  0.16398  0.18626  Biso   1.000  Zn
  C56      1.0000 0.35769  0.73390  0.63981  Biso   1.000  C
  H56      1.0000 0.32190  0.78010  0.65520  Biso   1.000  H
  C57      1.0000 0.39910  0.61320  0.59429  Biso   1.000  C
  H57      1.0000 0.39930  0.55800  0.57200  Biso   1.000  H
  C58      1.0000 0.47080  0.65820  0.61630  Biso   1.000  C
  H58      1.0000 0.52870  0.63950  0.61190  Biso   1.000  H
  C59      1.0000 0.19110  0.51370  0.71700  Biso   1.000  C
  H59      1.0000 0.23910  0.53740  0.74170  Biso   1.000  H
  C60      1.0000 0.11980  0.82240  0.60932  Biso   1.000  C
  H60      1.0000 0.13720  0.84540  0.56430  Biso   1.000  H
  C61      1.0000 0.09815  0.73721  0.69816  Biso   1.000  C
  H61      1.0000 0.09770  0.68700  0.72760  Biso   1.000  H
  C62      1.0000 0.60590  0.84601  0.54640  Biso   1.000  C
  H62      1.0000 0.56400  0.81080  0.52360  Biso   1.000  H
  C63      1.0000 0.57600  0.86590  0.83906  Biso   1.000  C
  H63      1.0000 0.55780  0.92450  0.84210  Biso   1.000  H
  C64      1.0000 0.40531  0.98711  0.63839  Biso   1.000  C
  H64      1.0000 0.43810  0.99000  0.59540  Biso   1.000  H
  C65      1.0000 0.36280  0.94990  0.74290  Biso   1.000  C
  H65      1.0000 0.35790  0.92230  0.78830  Biso   1.000  H
  C66      1.0000 0.66510  0.93230  0.62120  Biso   1.000  C
  H66      1.0000 0.67640  0.96620  0.66270  Biso   1.000  H
  C67      1.0000 0.20800  0.56190  0.44300  Biso   1.000  C
  H67      1.0000 0.25320  0.52280  0.45400  Biso   1.000  H
  N38      1.0000 0.32702  0.66148  0.60990  Biso   1.000  N
  N39      1.0000 0.44376  0.73514  0.64604  Biso   1.000  N
  N40      1.0000 0.17417  0.62256  0.48847  Biso   1.000  N
  N41      1.0000 0.16370  0.53685  0.64992  Biso   1.000  N
  N42      1.0000 0.13490  0.73928  0.63318  Biso   1.000  N
  N43      1.0000 0.60088  0.86758  0.61532  Biso   1.000  N
  N44      1.0000 0.56206  0.81197  0.78192  Biso   1.000  N
  N45      1.0000 0.42445  0.93287  0.69228  Biso   1.000  N
  Zn11     1.0000 0.20215  0.63949  0.59170  Biso   1.000  Zn
  Zn12     1.0000 0.50963  0.83602  0.68626  Biso   1.000  Zn
  C68      1.0000 0.64231  0.23390  0.86019  Biso   1.000  C
  H68      1.0000 0.67810  0.28010  0.84480  Biso   1.000  H
  C69      1.0000 0.60090  0.11320  0.90571  Biso   1.000  C
  H69      1.0000 0.60070  0.05800  0.92800  Biso   1.000  H
  C70      1.0000 0.52920  0.15820  0.88370  Biso   1.000  C
  H70      1.0000 0.47130  0.13950  0.88810  Biso   1.000  H
  C71      1.0000 0.88020  0.32240  0.89068  Biso   1.000  C
  H71      1.0000 0.86280  0.34540  0.93570  Biso   1.000  H
  C72      1.0000 0.90185  0.23721  0.80184  Biso   1.000  C
  H72      1.0000 0.90230  0.18700  0.77240  Biso   1.000  H
  C73      1.0000 0.39410  0.34601  0.95360  Biso   1.000  C
  H73      1.0000 0.43600  0.31080  0.97640  Biso   1.000  H
  C74      1.0000 0.42400  0.36590  0.66094  Biso   1.000  C
  H74      1.0000 0.44220  0.42450  0.65790  Biso   1.000  H
  C75      1.0000 0.59469  0.48711  0.86161  Biso   1.000  C
  H75      1.0000 0.56190  0.49000  0.90460  Biso   1.000  H
  C76      1.0000 0.63720  0.44990  0.75710  Biso   1.000  C
  H76      1.0000 0.64210  0.42230  0.71170  Biso   1.000  H
  C77      1.0000 0.77250  0.09510  0.07030  Biso   1.000  C
  H77      1.0000 0.71500  0.07500  0.06610  Biso   1.000  H
  C78      1.0000 0.31700  0.39760  0.86750  Biso   1.000  C
  H78      1.0000 0.29620  0.41060  0.82080  Biso   1.000  H
  N46      1.0000 0.67298  0.16148  0.89010  Biso   1.000  N
  N47      1.0000 0.55624  0.23514  0.85396  Biso   1.000  N
  N48      1.0000 0.82583  0.12256  0.01153  Biso   1.000  N
  N49      1.0000 0.86510  0.23928  0.86682  Biso   1.000  N
  N50      1.0000 0.39912  0.36758  0.88468  Biso   1.000  N
  N51      1.0000 0.43794  0.31197  0.71808  Biso   1.000  N
  N52      1.0000 0.57555  0.43287  0.80772  Biso   1.000  N
  Zn13     1.0000 0.79785  0.13949  0.90830  Biso   1.000  Zn
  Zn14     1.0000 0.49036  0.33602  0.81374  Biso   1.000  Zn
  C79      1.0000 0.85769  0.76610  0.36019  Biso   1.000  C
  H79      1.0000 0.82190  0.71990  0.34480  Biso   1.000  H
  C80      1.0000 0.89910  0.88680  0.40571  Biso   1.000  C
  H80      1.0000 0.89930  0.94200  0.42800  Biso   1.000  H
  C81      1.0000 0.97080  0.84180  0.38370  Biso   1.000  C
  H81      1.0000 0.02870  0.86050  0.38810  Biso   1.000  H
  C82      1.0000 0.69110  0.98630  0.28300  Biso   1.000  C
  H82      1.0000 0.73910  0.96260  0.25830  Biso   1.000  H
  C83      1.0000 0.61980  0.67760  0.39068  Biso   1.000  C
  H83      1.0000 0.63720  0.65460  0.43570  Biso   1.000  H
  C84      1.0000 0.59815  0.76279  0.30184  Biso   1.000  C
  H84      1.0000 0.59770  0.81300  0.27240  Biso   1.000  H
  C85      1.0000 0.10590  0.65399  0.45360  Biso   1.000  C
  H85      1.0000 0.06400  0.68920  0.47640  Biso   1.000  H
  C86      1.0000 0.07600  0.63410  0.16094  Biso   1.000  C
  H86      1.0000 0.05780  0.57550  0.15790  Biso   1.000  H
  C87      1.0000 0.90531  0.51289  0.36161  Biso   1.000  C
  H87      1.0000 0.93810  0.51000  0.40460  Biso   1.000  H
  C88      1.0000 0.86280  0.55010  0.25710  Biso   1.000  C
  H88      1.0000 0.85790  0.57770  0.21170  Biso   1.000  H
  C89      1.0000 0.16510  0.56770  0.37880  Biso   1.000  C
  H89      1.0000 0.17640  0.53380  0.33730  Biso   1.000  H
  C90      1.0000 0.70800  0.93810  0.55700  Biso   1.000  C
  H90      1.0000 0.75320  0.97720  0.54600  Biso   1.000  H
  N53      1.0000 0.82702  0.83852  0.39010  Biso   1.000  N
  N54      1.0000 0.94376  0.76486  0.35396  Biso   1.000  N
  N55      1.0000 0.67417  0.87744  0.51153  Biso   1.000  N
  N56      1.0000 0.66370  0.96315  0.35008  Biso   1.000  N
  N57      1.0000 0.63490  0.76072  0.36682  Biso   1.000  N
  N58      1.0000 0.10088  0.63242  0.38468  Biso   1.000  N
  N59      1.0000 0.06206  0.68803  0.21808  Biso   1.000  N
  N60      1.0000 0.92445  0.56713  0.30772  Biso   1.000  N
  Zn15     1.0000 0.70215  0.86051  0.40830  Biso   1.000  Zn
  Zn16     1.0000 0.00963  0.66398  0.31374  Biso   1.000  Zn
  C91      1.0000 0.90531  0.98711  0.86161  Biso   1.000  C
  H91      1.0000 0.93810  0.99000  0.90460  Biso   1.000  H
  C92      1.0000 0.86280  0.94990  0.75710  Biso   1.000  C
  H92      1.0000 0.85790  0.92230  0.71170  Biso   1.000  H
  N61      1.0000 0.92445  0.93287  0.80772  Biso   1.000  N
  C93      1.0000 0.80890  0.01370  0.78300  Biso   1.000  C
  H93      1.0000 0.76090  0.03740  0.75830  Biso   1.000  H
  N62      1.0000 0.83630  0.03685  0.85008  Biso   1.000  N
  C94      1.0000 0.19110  0.98630  0.21700  Biso   1.000  C
  H94      1.0000 0.23910  0.96260  0.24170  Biso   1.000  H
  N63      1.0000 0.16370  0.96315  0.14992  Biso   1.000  N
  C95      1.0000 0.09469  0.01289  0.13839  Biso   1.000  C
  H95      1.0000 0.06190  0.01000  0.09540  Biso   1.000  H
  C96      1.0000 0.13720  0.05010  0.24290  Biso   1.000  C
  H96      1.0000 0.14210  0.07770  0.28830  Biso   1.000  H
  N64      1.0000 0.07555  0.06713  0.19228  Biso   1.000  N
